CM An attempt to model a broadband dipole by COMROD
CE --- End Comments ---
GW     1     7   0.00000E+00 -1.00000E-01  2.00000E+00  0.00000E+00  1.00000E-01  2.00000E+00  1.00000E-03
GW     2    30   0.00000E+00 -2.50000E+01  2.00000E+00  0.00000E+00 -1.00000E-01  2.00000E+00  1.00000E-03
GW     3    30   0.00000E+00  2.50000E+01  2.00000E+00  0.00000E+00  1.00000E-01  2.00000E+00  1.00000E-03
GM     0     0   0.00000E+00  0.00000E+00  0.00000E+00  0.00000E+00  0.00000E+00  0.00000E+00  1.00000E+00
GE     0     0   0.00000E+00  0.00000E+00  0.00000E+00  0.00000E+00  0.00000E+00  0.00000E+00  0.00000E+00
EX     0     1     4      0  1.00000E+00  0.00000E+00  0.00000E+00  0.00000E+00  0.00000E+00  0.00000E+00
FR     0    71     0      0  2.50000E+00  5.00000E-02  6.00000E+00  0.00000E+00  0.00000E+00  0.00000E+00
LD     0     2     6      6  1.00000E+03  0.00000E+00  0.00000E+00  0.00000E+00  0.00000E+00  0.00000E+00
LD     0     3     6      6  1.00000E+03  0.00000E+00  0.00000E+00  0.00000E+00  0.00000E+00  0.00000E+00
LD     5     1     0      0  5.80000E+07  0.00000E+00  0.00000E+00  0.00000E+00  0.00000E+00  0.00000E+00
LD     5     2     0      0  5.80000E+07  0.00000E+00  0.00000E+00  0.00000E+00  0.00000E+00  0.00000E+00
LD     5     3     0      0  5.80000E+07  0.00000E+00  0.00000E+00  0.00000E+00  0.00000E+00  0.00000E+00
GN     0     0     0      0  1.30000E+01  5.00000E-03  0.00000E+00  0.00000E+00  0.00000E+00  0.00000E+00
RP     0    37    37   1000  0.00000E+00  0.00000E+00  2.50000E+00  1.00000E+01  0.00000E+00  0.00000E+00
EN     0     0     0      0  0.00000E+00  0.00000E+00  0.00000E+00  0.00000E+00  0.00000E+00  0.00000E+00
