CM EFHW 80m sloper
CM Resonant at 3.535 MHz
CE --- End Comments ---
GW     1    30   0.00000E+00  0.00000E+00  2.00000E+00  0.00000E+00  4.02760E+01  8.00000E+00  7.50000E-04
GE     1     0   0.00000E+00  0.00000E+00  0.00000E+00  0.00000E+00  0.00000E+00  0.00000E+00  0.00000E+00
EX     0     1     1      0  1.00000E+00  0.00000E+00  0.00000E+00  0.00000E+00  0.00000E+00  0.00000E+00
FR     0     1     0      0  3.55000E+00  6.00000E-03  3.80000E+00  0.00000E+00  0.00000E+00  0.00000E+00
GN     2     0     0      0  1.30000E+01  5.00000E-03  0.00000E+00  0.00000E+00  0.00000E+00  0.00000E+00
LD     5     1     0      0  5.80000E+07  0.00000E+00  0.00000E+00  0.00000E+00  0.00000E+00  0.00000E+00
RP     0    37    37   1000  0.00000E+00  0.00000E+00  2.50000E+00  1.00000E+01  0.00000E+00  0.00000E+00
EN     0     0     0      0  0.00000E+00  0.00000E+00  0.00000E+00  0.00000E+00  0.00000E+00  0.00000E+00
