CM --- NEC2 Input File created or edited by xnec2c 4.1.1 ---
CE --- End Comments ---
GW     1    41   0.00000E+00  0.00000E+00  2.00000E+00  0.00000E+00  4.10000E+01  2.00000E+00  1.00000E-03
GW     2     5   0.00000E+00  0.00000E+00  2.00000E+00  0.00000E+00  0.00000E+00  0.00000E+00  1.00000E-03
GW     3     8   0.00000E+00  0.00000E+00  0.00000E+00  0.00000E+00  7.00000E+00  0.00000E+00  1.00000E-03
GM     1     7   0.00000E+00  0.00000E+00  4.50000E+01  0.00000E+00  0.00000E+00  0.00000E+00  3.00000E+00
GE     0     0   0.00000E+00  0.00000E+00  0.00000E+00  0.00000E+00  0.00000E+00  0.00000E+00  0.00000E+00
EX     0     1     1      0  1.00000E+00  0.00000E+00  0.00000E+00  0.00000E+00  0.00000E+00  0.00000E+00
LD     0     1    26     26  5.00000E+02  0.00000E+00  0.00000E+00  0.00000E+00  0.00000E+00  0.00000E+00
LD     5     3     0      0  5.80000E+07  0.00000E+00  0.00000E+00  0.00000E+00  0.00000E+00  0.00000E+00
LD     5     2     0      0  5.80000E+07  0.00000E+00  0.00000E+00  0.00000E+00  0.00000E+00  0.00000E+00
GN     2     0     0      0  1.30000E+01  5.00000E-03  0.00000E+00  0.00000E+00  0.00000E+00  0.00000E+00
FR     0    50     0      0  1.00000E+00  1.22449E-01  7.00000E+00  0.00000E+00  0.00000E+00  0.00000E+00
RP     0    37    37   1000  0.00000E+00  0.00000E+00  2.50000E+00  1.00000E+01  0.00000E+00  0.00000E+00
EN     0     0     0      0  0.00000E+00  0.00000E+00  0.00000E+00  0.00000E+00  0.00000E+00  0.00000E+00
