CM --- NEC2 Input File created or edited by xnec2c 3.6.1-beta ---
CE --- End Comments ---
GW     1    15   0.00000E+00 -2.00000E-01  2.00000E+00  0.00000E+00  2.00000E-01  2.00000E+00  1.00000E-03
GW     1    15   0.00000E+00 -2.00000E-01  2.00000E+00  0.00000E+00 -2.00000E+01  1.00000E+01  1.00000E-03
GW     2    15   0.00000E+00  2.00000E-01  2.00000E+00  0.00000E+00  2.00000E+01  1.00000E+01  1.00000E-03
GM     0     0   0.00000E+00  0.00000E+00  0.00000E+00  0.00000E+00  0.00000E+00  0.00000E+00  1.00000E+00
GE     1     0   0.00000E+00  0.00000E+00  0.00000E+00  0.00000E+00  0.00000E+00  0.00000E+00  0.00000E+00
EX     0     1     8      0  1.00000E+00  0.00000E+00  0.00000E+00  0.00000E+00  0.00000E+00  0.00000E+00
FR     0    71     0      0  2.50000E+00  5.00000E-02  6.00000E+00  0.00000E+00  0.00000E+00  0.00000E+00
GN     2     0     0      0  1.20000E+01  2.00000E-03  0.00000E+00  0.00000E+00  0.00000E+00  0.00000E+00
RP     0    37    37   1000  0.00000E+00  0.00000E+00  2.50000E+00  1.00000E+01  0.00000E+00  0.00000E+00
EN     0     0     0      0  0.00000E+00  0.00000E+00  0.00000E+00  0.00000E+00  0.00000E+00  0.00000E+00
